Version 4
SHEET 1 880 680
WIRE 304 96 224 96
WIRE 160 112 64 112
WIRE 256 128 224 128
WIRE 256 160 256 128
WIRE 64 208 64 112
WIRE 304 208 304 96
WIRE 64 352 64 288
WIRE 304 352 304 288
WIRE 304 352 64 352
WIRE 64 384 64 352
FLAG 64 384 0
FLAG 256 160 0
SYMBOL 7805 192 112 R0
SYMATTR InstName U1
SYMBOL voltage 64 192 R0
WINDOW 123 0 0 Left 0
WINDOW 39 0 0 Left 0
SYMATTR InstName V1
SYMATTR Value 15
SYMBOL res 288 192 R0
SYMATTR InstName R1
TEXT -376 352 Left 2 !.op
