Version 4
SHEET 1 880 680
WIRE 144 32 48 32
WIRE 48 208 48 32
SYMBOL LM317\ symbol 208 48 R0
SYMATTR InstName X1
SYMBOL voltage 48 192 R0
SYMATTR InstName V1
