Version 4.1
SHEET 1 880 680
WIRE 320 -96 -32 -96
WIRE 400 -96 320 -96
WIRE 544 -96 480 -96
WIRE -32 -32 -32 -96
WIRE 320 -32 320 -96
WIRE 544 -32 544 -96
WIRE -32 112 -32 48
WIRE 48 112 -32 112
WIRE 320 112 320 48
WIRE 416 112 320 112
WIRE -32 144 -32 112
WIRE 320 144 320 112
WIRE -32 224 -32 192
WIRE 48 224 48 112
WIRE 48 224 16 224
WIRE 80 224 48 224
WIRE 192 224 160 224
WIRE 256 224 192 224
WIRE 272 224 256 224
WIRE 320 224 320 192
WIRE 192 272 192 224
WIRE -32 320 -32 240
WIRE 320 320 320 240
WIRE 192 384 192 336
WIRE 192 512 192 464
FLAG -32 320 0
FLAG 320 320 0
FLAG 192 512 0
FLAG 544 -32 0
FLAG 256 224 G
FLAG 416 112 out
IOPIN 416 112 Out
SYMBOL nmos4 272 144 R0
SYMATTR InstName M1
SYMATTR Value CMOSN
SYMATTR Value2 l=l w=w ad=2.5*l*w as=2.5*l*w pd=5*l+2*w ps=5*l+2*w
SYMBOL nmos4 16 144 M0
SYMATTR InstName M2
SYMATTR Value CMOSN
SYMATTR Value2 l=l w=w ad=2.5*l*w as=2.5*l*w pd=5*l+2*w ps=5*l+2*w
SYMBOL res 176 208 R90
WINDOW 0 0 56 VBottom 2
WINDOW 3 32 56 VTop 2
SYMATTR InstName R1
SYMATTR Value 100k
SYMBOL cap 176 272 R0
SYMATTR InstName C1
SYMATTR Value 26.4n
SYMBOL voltage 192 368 R0
WINDOW 123 24 124 Left 2
WINDOW 39 0 0 Left 0
SYMATTR Value2 AC 1
SYMATTR InstName V1
SYMATTR Value SINE(0 10m 1k)
SYMBOL current -32 -32 R0
WINDOW 123 0 0 Left 0
WINDOW 39 0 0 Left 0
SYMATTR InstName I1
SYMATTR Value 73.7µ
SYMBOL res 304 -48 R0
SYMATTR InstName R2
SYMATTR Value 15k
SYMBOL voltage 384 -96 R270
WINDOW 0 32 56 VTop 2
WINDOW 3 -32 56 VBottom 2
WINDOW 123 0 0 Left 0
WINDOW 39 0 0 Left 0
SYMATTR InstName V2
SYMATTR Value 1.8
TEXT -232 440 Left 2 !.param w=17.58u l=1u
TEXT -232 480 Left 2 !.include "TSMC_180nm.txt"
TEXT -232 400 Left 2 ;.tran 10m
TEXT 368 384 Left 2 ;Name:Sricharan Vinoth Kumar\nRoll No: 2024112022
TEXT -232 -232 Left 2 !.meas TRAN VoMax MAX V(out) FROM 4m TO 10m
TEXT -232 -200 Left 2 !.meas TRAN VoMin MIN V(out) FROM 4m TO 10m
TEXT -232 -168 Left 2 !.meas TRAN AmpVout PARAM (VoMax - VoMin)
TEXT -232 368 Left 2 !.ac dec 1000 1 1G
