Version 4
SHEET 1 880 680
WIRE 144 32 48 32
WIRE 368 32 272 32
WIRE 480 32 368 32
WIRE 368 176 368 32
WIRE 480 176 480 32
WIRE 48 208 48 32
WIRE 208 208 208 144
WIRE 320 208 208 208
WIRE 48 368 48 288
WIRE 368 368 368 256
WIRE 368 368 48 368
WIRE 480 368 480 256
WIRE 480 368 368 368
SYMBOL LM317\ symbol 208 48 R0
SYMATTR InstName X1
SYMBOL voltage 48 192 R0
SYMATTR InstName V1
SYMBOL Imported\\pot 384 272 R180
SYMATTR InstName U1
SYMATTR Value ""
SYMBOL res 464 160 R0
SYMATTR InstName R1
