Version 4
SHEET 1 880 680
WIRE 112 128 16 128
WIRE 256 128 192 128
WIRE 16 176 16 128
WIRE 256 176 256 128
WIRE 16 320 16 256
WIRE 256 320 256 240
WIRE 256 320 16 320
WIRE 256 352 256 320
FLAG 256 352 0
SYMBOL res 208 112 R90
WINDOW 0 0 56 VBottom 2
WINDOW 3 32 56 VTop 2
SYMATTR InstName R1
SYMATTR Value 1k
SYMBOL cap 240 176 R0
SYMATTR InstName C1
SYMATTR Value 1µ
SYMBOL voltage 16 160 R0
WINDOW 123 0 0 Left 0
WINDOW 39 0 0 Left 0
SYMATTR InstName V1
SYMATTR Value AC 1
TEXT -16 376 Left 2 ;.tran 10m
TEXT -16 408 Left 2 !.ac dec 10 10 10Meg
