Version 4.1
SHEET 1 880 680
WIRE 128 80 64 80
WIRE 256 80 192 80
WIRE 64 128 64 80
WIRE 64 128 -64 128
WIRE 256 128 256 80
WIRE 352 128 256 128
WIRE 64 176 64 128
WIRE 112 176 64 176
WIRE 256 176 256 128
WIRE 256 176 192 176
WIRE 352 192 352 128
WIRE 352 192 304 192
WIRE 400 192 352 192
WIRE -64 208 -64 128
WIRE 304 224 304 192
WIRE 400 224 400 192
WIRE 304 336 304 304
WIRE 352 336 304 336
WIRE 400 336 400 288
WIRE 400 336 352 336
WIRE -64 432 -64 288
WIRE 352 432 352 336
WIRE 352 432 -64 432
WIRE 352 480 352 432
FLAG 352 480 0
SYMBOL cap 192 64 R90
WINDOW 0 0 32 VBottom 2
WINDOW 3 32 32 VTop 2
SYMATTR InstName C1
SYMATTR Value 2µ
SYMBOL res 208 160 R90
WINDOW 0 0 56 VBottom 2
WINDOW 3 32 56 VTop 2
SYMATTR InstName R1
SYMATTR Value 1k
SYMBOL res 320 320 R180
WINDOW 0 36 76 Left 2
WINDOW 3 36 40 Left 2
SYMATTR InstName R2
SYMATTR Value 2k
SYMBOL cap 384 224 R0
SYMATTR InstName C2
SYMATTR Value 1µ
SYMBOL voltage -64 192 R0
WINDOW 123 0 0 Left 0
WINDOW 39 0 0 Left 0
WINDOW 3 24 96 Left 1
SYMATTR Value PULSE(0 5 0 0.001f 0.001f 5)
SYMATTR InstName V1
TEXT -96 504 Left 2 !.tran 0 50m 0
