Version 4
SHEET 1 880 680
WIRE 352 16 96 16
WIRE 480 16 352 16
WIRE 352 48 352 16
WIRE 480 48 480 16
WIRE 96 128 96 16
WIRE 352 160 352 128
WIRE 368 160 352 160
WIRE 480 160 480 112
WIRE 576 160 480 160
WIRE 576 192 576 160
WIRE 480 208 480 160
WIRE 352 224 352 160
WIRE 96 336 96 208
WIRE 352 336 352 288
WIRE 352 336 96 336
WIRE 480 336 480 288
WIRE 480 336 352 336
FLAG 576 192 0
SYMBOL voltage 96 112 R0
WINDOW 123 0 0 Left 0
WINDOW 39 0 0 Left 0
WINDOW 3 24 96 Left 1
SYMATTR InstName V1
SYMATTR Value PULSE(0 5 0 .001f .001f 5)
SYMBOL res 336 32 R0
SYMATTR InstName R1
SYMATTR Value 1k
SYMBOL cap 336 224 R0
SYMATTR InstName C1
SYMATTR Value 1µ
SYMBOL cap 464 48 R0
SYMATTR InstName C2
SYMATTR Value 1µ
SYMBOL res 464 192 R0
SYMATTR InstName R2
SYMATTR Value 1k
TEXT 56 352 Left 2 !.tran 10m
