Version 4.1
SHEET 1 880 680
WIRE 96 -64 48 -64
WIRE 192 -64 176 -64
WIRE 48 -16 48 -64
WIRE 464 32 64 32
WIRE 192 128 192 -64
WIRE 144 144 -80 144
WIRE 320 176 240 176
WIRE 464 176 464 32
WIRE 464 176 384 176
WIRE 544 176 464 176
WIRE 64 208 64 32
WIRE 144 208 64 208
WIRE 464 224 464 176
WIRE -80 240 -80 144
WIRE -80 272 -80 240
WIRE 464 352 464 304
WIRE -80 368 -80 352
WIRE 96 368 -80 368
WIRE 192 368 192 224
WIRE 192 368 176 368
WIRE -80 416 -80 368
FLAG -80 416 0
FLAG 544 176 Out
IOPIN 544 176 Out
FLAG 464 352 0
FLAG 48 -16 0
FLAG -80 240 in
SYMBOL Custom\ Made\\UA741 176 176 R0
SYMATTR InstName U1
SYMBOL voltage -80 256 R0
WINDOW 123 0 0 Left 0
WINDOW 39 0 0 Left 0
SYMATTR InstName V_in
SYMATTR Value SINE(0 1 100)
SYMBOL diode 320 192 R270
WINDOW 0 32 32 VTop 2
WINDOW 3 0 32 VBottom 2
SYMATTR InstName D1
SYMBOL res 448 208 R0
SYMATTR InstName R1
SYMATTR Value 1k
SYMBOL voltage 80 368 R270
WINDOW 0 32 56 VTop 2
WINDOW 3 -32 56 VBottom 2
WINDOW 123 0 0 Left 0
WINDOW 39 0 0 Left 0
SYMATTR InstName V2
SYMATTR Value 12
SYMBOL voltage 192 -64 R90
WINDOW 0 -32 56 VBottom 2
WINDOW 3 32 56 VTop 2
WINDOW 123 0 0 Left 0
WINDOW 39 0 0 Left 0
SYMATTR InstName V3
SYMATTR Value 12
TEXT -112 440 Left 2 !.tran .05
